<configuration>
    <input>
        <net-file value="2wsi.net.xml"/>
        <route-files value="2wsi-1.rou.xml"/>
    </input>
    <time>
        <begin value="0"/>
        <end value="100000"/>
    </time>
</configuration>




